

10A01*********************************************************************************************************************
*SRC=10A01;DI_10A01;Diodes;Si;  50.0V  10.0A  3.00us   Diodes Inc. 10A Rectifier
.MODEL DI_10A01 D  ( IS=844n RS=2.06m BV=50.0 IBV=10.0u
+ CJO=277p  M=0.333 N=2.06 TT=4.32u )
*********************************************************************************************************************

10A02*********************************************************************************************************************
*SRC=10A02;DI_10A02;Diodes;Si;  100V  10.0A  3.00us   Diodes Inc. 10A Rectifier
.MODEL DI_10A02 D  ( IS=844n RS=2.06m BV=100 IBV=10.0u
+ CJO=277p  M=0.333 N=2.06 TT=4.32u )
*********************************************************************************************************************

10A03*********************************************************************************************************************
*SRC=10A03;DI_10A03;Diodes;Si;  200V  10.0A  3.00us   Diodes Inc. 10A Rectifier
.MODEL DI_10A03 D  ( IS=844n RS=2.06m BV=200 IBV=10.0u
+ CJO=277p  M=0.333 N=2.06 TT=4.32u )
*********************************************************************************************************************

10A04*********************************************************************************************************************
*SRC=10A04;DI_10A04;Diodes;Si;  400V  10.0A  3.00us   Diodes Inc. 10A Rectifier
.MODEL DI_10A04 D  ( IS=844n RS=2.06m BV=400 IBV=10.0u
+ CJO=277p  M=0.333 N=2.06 TT=4.32u )
*********************************************************************************************************************

10A05*********************************************************************************************************************
*SRC=10A05;DI_10A05;Diodes;Si;  600V  10.0A  3.00us   Diodes Inc. 10A Rectifier
.MODEL DI_10A05 D  ( IS=844n RS=2.06m BV=600 IBV=10.0u
+ CJO=148p  M=0.333 N=2.06 TT=4.32u )
*********************************************************************************************************************

10A06*********************************************************************************************************************
*SRC=10A06;DI_10A06;Diodes;Si;  800V  10.0A  3.00us   Diodes Inc. 10A Rectifier
.MODEL DI_10A06 D  ( IS=844n RS=2.06m BV=800 IBV=10.0u
+ CJO=148p  M=0.333 N=2.06 TT=4.32u )
*********************************************************************************************************************

10A07*********************************************************************************************************************
*SRC=10A07;DI_10A07;Diodes;Si;  1.00kV  10.0A  3.00us   Diodes Inc. 10A Rectifier
.MODEL DI_10A07 D  ( IS=844n RS=2.06m BV=1.00k IBV=10.0u
+ CJO=148p  M=0.333 N=2.06 TT=4.32u )
*********************************************************************************************************************

1N4001*SRC=1N4001;DI_1N4001;Diodes;Si;  50.0V  1.00A  3.00us   Diodes, Inc. diode
.MODEL DI_1N4001 D  ( IS=76.9p RS=42.0m BV=50.0 IBV=5.00u
+ CJO=39.8p  M=0.333 N=1.45 TT=4.32u )

1N4001G***************************************************************************************************************************************
*SRC=1N4001G;DI_1N4001G;Diodes;Si;  50.0V  1.00A  2.00us   Diodes Inc. Glass Passivated Rectifier
.MODEL DI_1N4001G D  ( IS=65.4p RS=42.2m BV=50.0 IBV=5.00u
+ CJO=14.8p  M=0.333 N=1.36 TT=2.88u )
***************************************************************************************************************************************

1N4002*SRC=1N4002;DI_1N4002;Diodes;Si;  100V  1.00A  3.00us   Diodes, Inc. diode
.MODEL DI_1N4002 D  ( IS=76.9p RS=42.0m BV=100 IBV=5.00u
+ CJO=39.8p  M=0.333 N=1.45 TT=4.32u )

1N4002G***************************************************************************************************************************************
*SRC=1N4002G;DI_1N4002G;Diodes;Si;  100V  1.00A  2.00us   Diodes Inc. Glass Passivated Rectifier
.MODEL DI_1N4002G D  ( IS=65.4p RS=42.2m BV=100 IBV=5.00u
+ CJO=14.8p  M=0.333 N=1.36 TT=2.88u )
***************************************************************************************************************************************

1N4003*SRC=1N4003;DI_1N4003;Diodes;Si;  200V  1.00A  3.00us   Diodes, Inc. diode
.MODEL DI_1N4003 D  ( IS=76.9p RS=42.0m BV=200 IBV=5.00u
+ CJO=39.8p  M=0.333 N=1.45 TT=4.32u )

1N4003G***************************************************************************************************************************************
*SRC=1N4003G;DI_1N4003G;Diodes;Si;  200V  1.00A  2.00us   Diodes Inc. Glass Passivated Rectifier
.MODEL DI_1N4003G D  ( IS=65.4p RS=42.2m BV=200 IBV=5.00u
+ CJO=14.8p  M=0.333 N=1.36 TT=2.88u )
***************************************************************************************************************************************

1N4004*SRC=1N4004;DI_1N4004;Diodes;Si;  400V  1.00A  3.00us   Diodes, Inc. diode
.MODEL DI_1N4004 D  ( IS=76.9p RS=42.0m BV=400 IBV=5.00u
+ CJO=39.8p  M=0.333 N=1.45 TT=4.32u )

1N4004G***************************************************************************************************************************************
*SRC=1N4004G;DI_1N4004G;Diodes;Si;  400V  1.00A  2.00us   Diodes Inc. Glass Passivated Rectifier
.MODEL DI_1N4004G D  ( IS=65.4p RS=42.2m BV=400 IBV=5.00u
+ CJO=14.8p  M=0.333 N=1.36 TT=2.88u )
***************************************************************************************************************************************

1N4005*SRC=1N4005;DI_1N4005;Diodes;Si;  600V  1.00A  3.00us   Diodes, Inc. diode
.MODEL DI_1N4005 D  ( IS=76.9p RS=42.0m BV=600 IBV=5.00u
+ CJO=26.5p  M=0.333 N=1.45 TT=4.32u )

1N4005G***************************************************************************************************************************************
*SRC=1N4005G;DI_1N4005G;Diodes;Si;  600V  1.00A  2.00us   Diodes Inc. Glass Passivated Rectifier
.MODEL DI_1N4005G D  ( IS=65.4p RS=42.2m BV=600 IBV=5.00u
+ CJO=14.8p  M=0.333 N=1.36 TT=2.88u )
***************************************************************************************************************************************

1N4006*SRC=1N4006;DI_1N4006;Diodes;Si;  800V  1.00A  3.00us   Diodes, Inc. diode
.MODEL DI_1N4006 D  ( IS=76.9p RS=42.0m BV=800 IBV=5.00u
+ CJO=26.5p  M=0.333 N=1.45 TT=4.32u )

1N4006G***************************************************************************************************************************************
*SRC=1N4006G;DI_1N4006G;Diodes;Si;  800V  1.00A  2.00us   Diodes Inc. Glass Passivated Rectifier
.MODEL DI_1N4006G D  ( IS=65.4p RS=42.2m BV=800 IBV=5.00u
+ CJO=14.8p  M=0.333 N=1.36 TT=2.88u )
***************************************************************************************************************************************

1N4007*SRC=1N4007;DI_1N4007;Diodes;Si;  1.00kV  1.00A  3.00us   Diodes, Inc. diode
.MODEL DI_1N4007 D  ( IS=76.9p RS=42.0m BV=1.00k IBV=5.00u
+ CJO=26.5p  M=0.333 N=1.45 TT=4.32u )

1N4007G***************************************************************************************************************************************
*SRC=1N4007G;DI_1N4007G;Diodes;Si;  1.00kV  1.00A  2.00us   Diodes Inc. Glass Passivated Rectifier
.MODEL DI_1N4007G D  ( IS=65.4p RS=42.2m BV=1.00k IBV=5.00u
+ CJO=14.8p  M=0.333 N=1.36 TT=2.88u )
**************************************************************************************************************************************

1N4148W*SRC=1N4148W;1N4148W;Diodes;Si;  75.0V  0.300A  4.00ns   Diodes Inc. 
.MODEL 1N4148W D  ( IS=10.4n RS=51.5m BV=75.0 IBV=1.00u
+ CJO=2.00p  M=0.333 N=2.07 TT=5.76n )

1N4148WS*SRC=1N4148WS;1N4148WS;Diodes;Si;  75.0V  0.300A  4.00ns   Diodes Inc.
Switching Diode
.MODEL 1N4148WS D  ( IS=10.4n RS=51.5m BV=75.0 IBV=1.00u
+ CJO=2.00p  M=0.333 N=2.07 TT=5.76n )

1N4148WT*SRC=1N4148WT;DI_1N4148WT;Diodes;Si;  80.0V  0.125A  4.00ns   Diodes Inc.
Switching
.MODEL DI_1N4148WT D  ( IS=111n RS=0.628 BV=80.0 IBV=1.00u
+ CJO=2.00p  M=0.333 N=1.70 TT=5.76n )

1N4448HLP*SRC=1N4448HLP;DI_1N4448HLP;Diodes;Si;  80.0V  0.250A  4.00ns   Diodes Inc. Switching Diode
.MODEL DI_1N4448HLP D  ( IS=3.2n RS=0.761 BV=100.0 IBV=100n ISR=5n
+ CJO=1.3p  M=0.21 VJ=.5 N=1.88 TT=3n )

1N4448HWS*SRC=1N4448HWS;DI_1N4448HWS;Diodes;Si;  80.0V  0.500A  4.00ns   Diodes Inc. Switching Diode
.MODEL DI_1N4448HWS D  ( IS=24.7n RS=84.4m BV=80.0 IBV=100n
+ CJO=3.50p  M=0.333 N=2.12 TT=5.76n )

1N4448HWT*SRC=1N4448HWT;DI_1N4448HWT;Diodes;Si;  80.0V  0.250A  4.00ns   Diodes Inc.
Switching
.MODEL DI_1N4448HWT D  ( IS=137f RS=0.168 BV=80.0 IBV=100n
+ CJO=3.56p  M=0.333 N=1.11 TT=5.76n )

1N4448W*SRC=1N4448W;DI_1N4448W;Diodes;Si;  75.0V  0.250A  4.00ns   Diodes Inc. 
.MODEL DI_1N4448W D  ( IS=355p RS=0.168 BV=75.0 IBV=2.50u
+ CJO=4.00p  M=0.333 N=1.70 TT=5.76n )

1N4448WS*SRC=1N4448WS;DI_1N4448WS;Diodes;Si;  75.0V  0.500A  4.00ns   Diodes Inc. Switching Diode
.MODEL DI_1N4448WS D  ( IS=24.7n RS=84.4m BV=75.0 IBV=2.50u
+ CJO=4.00p  M=0.333 N=2.12 TT=5.76n )

1N4933*SRC=1N4933;DI_1N4933;Diodes;Si;  50.0V  1.00A  200ns   Diodes Inc. Fast
Rectifier
.MODEL DI_1N4933 D  ( IS=830n RS=34.0m BV=50.0 IBV=5.00u
+ CJO=26.5p  M=0.333 N=2.46 TT=288n )

1N4934*SRC=1N4934;DI_1N4934;Diodes;Si;  100V  1.00A  200ns   Diodes Inc. Fast
Rectifier
.MODEL DI_1N4934 D  ( IS=830n RS=34.0m BV=100 IBV=5.00u
+ CJO=26.5p  M=0.333 N=2.46 TT=288n )

1N4935*SRC=1N4935;DI_1N4935;Diodes;Si;  200V  1.00A  200ns   Diodes Inc. Fast
Rectifier
.MODEL DI_1N4935 D  ( IS=830n RS=34.0m BV=200 IBV=5.00u
+ CJO=26.5p  M=0.333 N=2.46 TT=288n )

1N4936*SRC=1N4936;DI_1N4936;Diodes;Si;  400V  1.00A  200ns   Diodes Inc. Fast
Rectifier
.MODEL DI_1N4936 D  ( IS=830n RS=34.0m BV=400 IBV=5.00u
+ CJO=26.5p  M=0.333 N=2.46 TT=288n )

1N4937*SRC=1N4937;DI_1N4937;Diodes;Si;  600V  1.00A  200ns   Diodes Inc. Fast
Rectifier
.MODEL DI_1N4937 D  ( IS=830n RS=34.0m BV=600 IBV=5.00u
+ CJO=26.5p  M=0.333 N=2.46 TT=288n )

1N5400*SRC=1N5400;DI_1N5400;Diodes;Si;  50.0V  3.00A  3.00us   Diodes Inc. Standard Rectifier 
.MODEL DI_1N5400 D  ( IS=63.0n RS=14.1m BV=50.0 IBV=10.0u 
+ CJO=125p  M=0.333 N=1.70 TT=4.32u )

1N5401*SRC=1N5401;DI_1N5401;Diodes;Si;  100V  3.00A  3.00us   Diodes Inc. Standard Rectifier 
.MODEL DI_1N5401 D  ( IS=63.0n RS=14.1m BV=100 IBV=10.0u 
+ CJO=125p  M=0.333 N=1.70 TT=4.32u )

1N5402*SRC=1N5402;DI_1N5402;Diodes;Si;  200V  3.00A  3.00us   Diodes Inc. Standard Rectifier 
.MODEL DI_1N5402 D  ( IS=63.0n RS=14.1m BV=200 IBV=10.0u 
+ CJO=125p  M=0.333 N=1.70 TT=4.32u )

1N5404*SRC=1N5404;DI_1N5404;Diodes;Si;  400V  3.00A  3.00us   Diodes Inc. Standard Rectifier 
.MODEL DI_1N5404 D  ( IS=63.0n RS=14.1m BV=400 IBV=10.0u 
+ CJO=125p  M=0.333 N=1.70 TT=4.32u )

1N5406*SRC=1N5406;DI_1N5406;Diodes;Si;  600V  3.00A  3.00us   Diodes Inc. Standard Rectifier 
.MODEL DI_1N5406 D  ( IS=63.0n RS=14.1m BV=600 IBV=10.0u 
+ CJO=53.0p  M=0.333 N=1.70 TT=4.32u )

1N5407*SRC=1N5407;DI_1N5407;Diodes;Si;  800V  3.00A  3.00us   Diodes Inc. Standard Rectifier 
.MODEL DI_1N5407 D  ( IS=63.0n RS=14.1m BV=800 IBV=10.0u 
+ CJO=53.0p  M=0.333 N=1.70 TT=4.32u )

1N5408*SRC=1N5408;DI_1N5408;Diodes;Si;  1.00kV  3.00A  3.00us   Diodes Inc. Standard Rectifier 
.MODEL DI_1N5408 D  ( IS=63.0n RS=14.1m BV=1.00k IBV=10.0u 
+ CJO=53.0p  M=0.333 N=1.70 TT=4.32u )

1N5711WS*SRC=1N5711WS;DI_1N5711WS;Diodes;Si;  70.0V  15.0mA  1.00ns   Diodes Inc. 
.MODEL DI_1N5711WS D  ( IS=315n RS=2.80 BV=70.0 IBV=10.0u
+ CJO=2.00p  M=0.333 N=2.03 TT=1.44n )

1N5817*SRC=1N5817;DI_1N5817;Diodes;Si;  20.0V  1.00A  3.00us   Diodes Inc. Schottky Barrier Rectifier
.MODEL DI_1N5817 D  ( IS=870u RS=81.3m BV=20.0 IBV=1.00m
+ CJO=203p  M=0.333 N=1.81 TT=4.32u )

1N5818*SRC=1N5818;DI_1N5818;Diodes;Si;  30.0V  1.00A  3.00us   Diodes Inc. Schottky Barrier Rectifier
.MODEL DI_1N5818 D  ( IS=263u RS=73.1m BV=30.0 IBV=1.00m
+ CJO=203p  M=0.333 N=1.90 TT=4.32u )

1N5819*SRC=1N5819;DI_1N5819;Diodes;Si;  40.0V  1.00A  3.00us   Diodes Inc. Schottky Barrier Rectifier
.MODEL DI_1N5819 D  ( IS=390n RS=0.115 BV=40.0 IBV=1.00m
+ CJO=203p  M=0.333 N=1.70 TT=4.32u )

1N5819HW*SRC=1N5819HW;DI_1N5819HW;Diodes;Si;  40.0V  1.00A  5.00ns   Diodes Inc.
Schottky
.MODEL DI_1N5819HW D  ( IS=191u RS=42.0m BV=40.0 IBV=1.00m
+ CJO=239p  M=0.333 N=1.70 TT=7.20n )

1N6263W*SRC=1N6263W;DI_1N6263W;Diodes;Si;  60.0V  15.0mA  1.00ns   Diodes Inc. Schottky 
.MODEL DI_1N6263W D  ( IS=1.82u RS=2.80 BV=60.0 IBV=200n 
+ CJO=2.65p  M=0.333 N=1.70 TT=1.44n )

1SMB5928B*
*DIODES_INC_SPICE_MODEL
*ORIGIN=DZSL_DPG_SU
*SIMULATOR=PSPICE
*DATE=23/12/2014
*VERSION=1

.model 1SMB5929B D(IS=1n RS=0.1 CJO=1800p M=0.5 VJ=0.4 ISR=.008u N=1.05 IKF=10u BV=15 NBV=10 IBV=25m TT=40n EG=.84 TRS1=.1m) 


*         (c)  2014 Diodes Inc
*   The copyright in these models  and  the designs embodied belong
*   to Diodes Incorporated (" Zetex ").  They  are  supplied
*   free of charge by Zetex for the purpose of research and design
*   and may be used or copied intact  (including this notice)  for
*   that purpose only.  All other rights are reserved.  The models
*   are believed accurate but no condition  or warranty  as to their
*   merchantability or fitness for purpose is given and no liability
*   in respect of any use is accepted by Diodes Incorporated, its distributors
*   or agents.
*
*   Diodes Zetex Semiconductors Ltd, Zetex Technology Park, Chadderton,
*   Oldham, United Kingdom, OL9 9LL
*

.SIMULATOR DEFAULT

1SS361UDJ*SRC=1SS361UDJ; 80V  0.3A  4.0ns   Diodes Inc. Switching Diode

D1  1 = A  2 = C  DI_1SS361UDJ
.MODEL DI_1SS361UDJ D
+ IS = 2.0n
+ N = 1.83
+ BV = 80
+ IBV = 1.00u
+ RS = 0.7
+ CJO = 0.71p
+ VJ = 5m
+ M = 9m
+ FC = 0.5
+ TT = 4n

2DA1201Y*DIODES_INC_SPICE_MODEL_DA1201Y
*ORIGIN=DZSL_DPG_SU
*SIMULATOR=PSPICE
*DATE=06/07/2012
*VERSION=1



.MODEL DA1201Y PNP IS=1.6E-13 NF=1 BF=210 VAF=175 ISE=3E-14 IKF=4.2
+ NE=1.4 BR=12 VAR=5.15 ISC=1E-13 NC=1.08 IKR=0.7 RC=0.013 RB=0.2 RE=0.016
+ QUASIMOD=1 RCO=4 GAMMA=1.4E-8 CJC=42E-12 MJC=0.32 VJC=0.44 CJE=237E-12
+ MJE=0.44 VJE=0.85 TF=0.95E-9 TR=22E-8 TRC1=.005 TRB1=.005 TRE1=.005 XTB=1.4 
*

2DA1774R*SRC=2DA1774R;DI_2DA1774R;BJTs PNP; Si;  50.0V  0.150A  250MHz   Diodes Inc. Bipolar Transistor
.MODEL DI_2DA1774R  PNP (IS=15.2f NF=1.00 BF=523 VAF=127
+ IKF=54.7m ISE=3.88p NE=2.00 BR=4.00 NR=1.00
+ VAR=24.0 IKR=0.135 RE=0.710 RB=2.84 RC=0.284
+ XTB=1.5 CJE=42.6p VJE=1.10 MJE=0.500 CJC=13.7p VJC=0.300
+ MJC=0.300 TF=453p TR=96.4n EG=1.12 )

2DA1797*
*DIODES_INC_SPICE_MODEL
*ORIGIN=DZSL_DPG
*SIMULATOR=PSPICE
*DATE=08/01/2009
*VERSION=1
*
.MODEL 2DA1797 PNP IS=2.715E-13 BF=170 VAF=70 NF=1.004 IKF=2.75 ISE=1E-13
+ NE=1.535 BR=23 VAR=40 NR=1.005 IKR=.55 ISC=5.15E-14 NC=1.13 RB=.07
+ RE=.065 RC=.085 CJE=360E-12 TF=.94E-9 CJC=90E-12 TR=60E-9 VJC=.705
+ MJC=.46
*
*$

2DA1971*DIODES_INC_SPICE_MODEL_2DA1971
*ORIGIN=DZSL_DPG
*SIMULATOR=PSPICE
*DATE=09/10/2012
*VERSION=2


.MODEL 2DA1971 PNP  IS =1.305E-13 NF =1.0004 BF =150 VAF=350
+ISE=7.5E-13 NE =1.5 RCO=20 GAMMA=2.5E-8 QUASIMOD=1 NR =1
+ISC=2E-13 NC =1.8 VAR=30  BR =2.5 RB =.1 RE =.01 RC =.01
+CJC=58E-12 MJC=.56 VJC=.775 CJE=404E-12  TF =1E-9 TR =1200E-9
+XTB=1.7 


*                (c)  2012 Diodes Inc
*
*   The copyright in these models  and  the designs embodied belong
*   to Diodes Incorporated (" Zetex ").  They  are  supplied
*   free of charge by Zetex for the purpose of research and design
*   and may be used or copied intact  (including this notice)  for
*   that purpose only.  All other rights are reserved.  The models
*   are believed accurate but no condition  or warranty  as to their
*   merchantability or fitness for purpose is given and no liability
*   in respect of any use is accepted by Diodes Incorporated, its distributors
*   or agents.
*
*   Diodes Zetex Semiconductors Ltd, Zetex Technology Park, Chadderton,
*   Oldham, United Kingdom, OL9 9LL
*

2DB1132R*SRC=2DB1132R;DI_2DB1132R;BJTs PNP; Si;  32.0V  1.00A  200MHz    -
.MODEL DI_2DB1132R  NPN (IS=3.90f NF=1.00 BF=302 VAF=102
+ IKF=0.989 ISE=6.63f NE=2.00 BR=4.00 NR=1.00
+ VAR=20.0 IKR=1.50 RE=96.5m RB=0.386 RC=38.6m
+ XTB=1.5 CJE=127p VJE=1.10 MJE=0.500 CJC=32.4p VJC=0.300
+ MJC=0.300 TF=741p TR=123n EG=1.12 )

2DB1182Q*DIODES_INC_SPICE_MODEL 2DB1182Q 
*SIMULATOR=SIMETRIX
*ORIGIN=DZSL_DPG_SU
*DATE=6Nov2012
*VERSION=1


.MODEL 2DB1182Q  PNP (IS=24E-14 NF=1.00 BF=200 ISE=10E-15 NE=1.28 VAF=127
+ IKF=3.34 BR=16.00 NR=1.00 ISC=30E-15 NC=1
+ VAR=20.0 IKR=5.25 RE=33.2m RB=0.133 RC=33.3m
+ XTB=1.5 CJE=411p VJE=.75 MJE=0.37 CJC=93.24p VJC=0.500
+ MJC=0.3300 TF=1.27n TR=230n EG=1.2 XTI=3)



*                (c)  2012 Diodes Inc
*
*   The copyright in these models  and  the designs embodied belong
*   to Diodes Incorporated (" Zetex ").  They  are  supplied
*   free of charge by Zetex for the purpose of research and design
*   and may be used or copied intact  (including this notice)  for
*   that purpose only.  All other rights are reserved.  The models
*   are believed accurate but no condition  or warranty  as to their
*   merchantability or fitness for purpose is given and no liability
*   in respect of any use is accepted by Diodes Incorporated, its distributors
*   or agents.
*
*   Diodes Zetex Semiconductors Ltd, Zetex Technology Park, Chadderton,
*   Oldham, United Kingdom, OL9 9LL
*

2DB1184Q*DIODES_INC_SPICE_MODEL 2DB1184Q 
*SIMULATOR=SIMETRIX
*ORIGIN=DZSL_DPG_SU
*DATE=29Nov2012
*VERSION=1


.MODEL 2DB1184Q  PNP (IS=24E-14 NF=1.00 BF=200 ISE=10E-15 NE=1.28 VAF=127
+ IKF=3.34 BR=16.00 NR=1.00 ISC=30E-15 NC=1
+ VAR=20.0 IKR=5.25 RE=33.2m RB=0.133 RC=33.3m
+ XTB=1.5 CJE=411p VJE=.75 MJE=0.37 CJC=93.24p VJC=0.500
+ MJC=0.3300 TF=1.27n TR=230n EG=1.2 XTI=3)



*                (c)  2012 Diodes Inc
*
*   The copyright in these models  and  the designs embodied belong
*   to Diodes Incorporated (" Zetex ").  They  are  supplied
*   free of charge by Zetex for the purpose of research and design
*   and may be used or copied intact  (including this notice)  for
*   that purpose only.  All other rights are reserved.  The models
*   are believed accurate but no condition  or warranty  as to their
*   merchantability or fitness for purpose is given and no liability
*   in respect of any use is accepted by Diodes Incorporated, its distributors
*   or agents.
*
*   Diodes Zetex Semiconductors Ltd, Zetex Technology Park, Chadderton,
*   Oldham, United Kingdom, OL9 9LL
*

2DB1694*
*DIODES_INC_SPICE_MODEL
*ORIGIN=DZSL_DPG
*SIMULATOR=PSPICE
*DATE=08/01/2009
*VERSION=1
*
.MODEL 2DB1694 PNP IS=2.817E-13 BF=550 IKF=0.63 VAF=28.4 
+ ISE=4.76E-14 NE=1.492 BR=42 IKR=0.293 VAR=10.21 ISC=2.7E-14 
+ NC=1.124 RB=0.173 RE=0.171 RC=0.089 CJC=28.5E-12 MJC=0.506 
+ VJC=0.843 CJE=92E-12 MJE=0.524 VJE=1.021 TF=0.8E-9 TR=20E-9
*
*$

2DB1713*
*DIODES_INC_SPICE_MODEL
*ORIGIN=DZSL_DPG_IM
*SIMULATOR=PSPICE
*DATE=17Jun2013
*VERSION=1
*

.MODEL 2DB1713 PNP IS=1.252E-12 NF=1.0119 BF=770 IKF=2.6 VAF=11
+ISE=1.3185E-13 NE=1.4832 NR=1.0047 BR=350 IKR=0.32 VAR=10.5
+ISC=5.2648E-14 NC=1.186 RB=0.053 RE=0.031 RC=0.044 CJC=137E-12
+MJC=0.34 VJC=0.275 CJE=280E-12 TF=0.75E-9 TR=2.3E-9


*                (c)  2013 Diodes Inc
*
*   The copyright in these models  and  the designs embodied belong
*   to Diodes Incorporated (" Zetex ").  They  are  supplied
*   free of charge by Zetex for the purpose of research and design
*   and may be used or copied intact  (including this notice)  for
*   that purpose only.  All other rights are reserved.  The models
*   are believed accurate but no condition  or warranty  as to their
*   merchantability or fitness for purpose is given and no liability
*   in respect of any use is accepted by Diodes Incorporated, its distributors
*   or agents.
*
*   Diodes Zetex Semiconductors Ltd, Zetex Technology Park, Chadderton,
*   Oldham, United Kingdom, OL9 9LL
*

2DB1714*
*DIODES_INC_SPICE_MODEL
*ORIGIN=DZSL_DPG
*SIMULATOR=PSPICE
*DATE=09/01/2009
*VERSION=1
*
.MODEL 2DB1714 PNP IS=4E-13 NF=1 BF=470 IKF=3.5 VAF=23 ISE=10E-14
+ NE=1.49 NR=1 BR=97 IKR=1 VAR=4.5 ISC=7.5e-14 NC=1.2 RE=0.014 RB=0.12
+ RC=0.0111 RCO=0.88 GAMMA=0.6E-9 CJC=58E-12 MJC=0.41 VJC=0.62 CJE=183E-12
+ MJE=0.5 VJE=0.95 TF=3.9E-10 TR=7.8e-9 XTB=1.5 TRE1=0.003 TRB1=0.003
+ TRC1=0.003 QUASIMOD=1
*
*$

2DC2412R*SRC=2DC2412R;DI_2DC2412R;BJTs NPN; Si;  50.0V  0.150A  200MHz   Diodes Inc. Bipolar Transistor
.MODEL DI_2DC2412R  NPN (IS=15.5f NF=1.00 BF=524 VAF=127
+ IKF=54.7m ISE=3.90p NE=2.00 BR=4.00 NR=1.00
+ VAR=28.0 IKR=0.135 RE=0.290 RB=1.16 RC=0.116
+ XTB=1.5 CJE=22.7p VJE=1.10 MJE=0.500 CJC=7.34p VJC=0.300
+ MJC=0.300 TF=698p TR=121n EG=1.12 )

2DC4617QLP*SRC=2DC4617QLP;DI_2DC4617QLP;BJTs NPN; Si;  50.0V  0.100A  200MHz    
.MODEL DI_2DC4617QLP  NPN (IS=1.21f NF=1.00 BF=202 VAF=127
+ IKF=98.0m ISE=5.55f NE=2.00 BR=4.00 NR=1.00
+ VAR=20.0 IKR=0.150 RE=0.575 RB=2.30 RC=0.230
+ XTB=1.5 CJE=15.6p VJE=1.10 MJE=0.500 CJC=6.12p VJC=0.300
+ MJC=0.300 TF=765p TR=126n EG=1.12 )

2DC4617R*SRC=2DC4617R;DI_2DC4617R;BJTs NPN; Si;  50.0V  0.150A  200MHz   Diodes Inc. Bipolar Transistor
.MODEL DI_2DC4617R  NPN (IS=15.5f NF=1.00 BF=524 VAF=127
+ IKF=54.7m ISE=3.90p NE=2.00 BR=4.00 NR=1.00
+ VAR=28.0 IKR=0.135 RE=0.290 RB=1.16 RC=0.116
+ XTB=1.5 CJE=22.7p VJE=1.10 MJE=0.500 CJC=7.34p VJC=0.300
+ MJC=0.300 TF=698p TR=121n EG=1.12 )

2DC4672*
*DIODES_INC_SPICE_MODEL
*ORIGIN=DZSL_DPG
*SIMULATOR=PSPICE
*DATE=09/01/2009
*VERSION=1
*
.MODEL 2DC4672 NPN IS=2.218E-13 NF=.9956 BF=230 IKF=2 VAF=100 ISE=2.9E-14
+ NE=1.35 NR=.995 BR=56 IKR=1 VAR=30 ISC=2.971E-13 NC=1.321 RB=.04
+ RE=.075 RC=.069 CJC=51E-12 MJC=.42 VJC=.595 CJE=318E-12 TF=.77E-9
+ TR=27E-9
*
*$

2DD1664R*
*DIODES_INC_SPICE_MODEL 2DD1664R
*ORIGIN=DZSL_DPG_SU
*SIMULATOR=PSPICE
*DATE=14/07/2014
*VERSION=1


.MODEL DD1664R NPN IS=150E-15 NF=1 BF=224 
+ ISE=1E-15 NE=1.35 NR=1 BR=28 ISC=6E-14 IKF=5 NK=.52 VAF=30
+ NC=1.3 RB=0.5 RE=0.1 RC=0.134 QUASIMOD=1 RCO=1 GAMMA=50E-11 VO=10
+ CJC=36.5E-12 MJC=0.36 VJC=0.55 CJE=139.4E-12 MJE=0.36 VJE=0.7
+ TF=1.3E-9 TR=16E-6 TRC1=.004 TRB1=.004 TRE1=.004 XTB=1.2
*QUASIMOD=1 RCO=80 GAMMA=4E-7  IKR=0.7 VAR=64 
*$



*                (c)  2014 Diodes Inc
*
*   The copyright in these models  and  the designs embodied belong
*   to Diodes Incorporated (" Zetex ").  They  are  supplied
*   free of charge by Zetex for the purpose of research and design
*   and may be used or copied intact  (including this notice)  for
*   that purpose only.  All other rights are reserved.  The models
*   are believed accurate but no condition  or warranty  as to their
*   merchantability or fitness for purpose is given and no liability
*   in respect of any use is accepted by Diodes Incorporated, its distributors
*   or agents.
*
*   Diodes Zetex Semiconductors Ltd, Zetex Technology Park, Chadderton,
*   Oldham, United Kingdom, OL9 9LL
*

2DD1766Q*SRC=2DD1766Q;DI_2DD1766Q;BJTs NPN; Si;  32.0V  2.00A  250MHz    -
.MODEL DI_2DD1766Q  NPN (IS=6.65f NF=1.00 BF=201 VAF=102
+ IKF=2.97 ISE=13.0f NE=2.00 BR=4.00 NR=1.00
+ VAR=20.0 IKR=4.50 RE=68.7m RB=0.275 RC=27.5m
+ XTB=1.5 CJE=218p VJE=1.10 MJE=0.500 CJC=41.4p VJC=0.300
+ MJC=0.300 TF=538p TR=101n EG=1.12 )

2DD2652*
*DIODES_INC_SPICE_MODEL
*ORIGIN=DZSL_DPG
*SIMULATOR=PSPICE
*DATE=09/01/2009
*VERSION=1
*
.MODEL 2DD2652  NPN IS=2.66E-13 BF=550 IKF=2.25 VAF=34.6
+ ISE=5.7E-14 NE=1.425 BR=280 IKR=0.9 VAR=12.25 
+ ISC=2.76E-13 NC=1.46 RB=0.22 RE=0.055 RC=0.038 
+ CJC=34.2E-12 MJC=0.298 VJC=0.441 CJE=103.5E-12 
+ MJE=0.357 VJE=0.7042 TF=1.12E-9 TR=2.15E-9
*
*$

2DD2656*
*DIODES_INC_SPICE_MODEL
*ORIGIN=DZSL_DPG
*SIMULATOR=PSPICE
*DATE=08/01/2009
*VERSION=1
*
.MODEL 2DD2656 NPN IS=2.61E-13 BF=550 IKF=0.99 VAF=84
+ ISE=7.17E-14 NE=1.4148 BR=110 IKR=0.63 VAR=51 ISC=2.25E-12 
+ NC=1.45 RB=0.093 RE=0.073 RC=0.083 CJC=18E-12 MJC=0.371 
+ VJC=0.435 CJE=97.7E-12 TF=0.78E-9 TR=9E-9
*
*$

2DD2661*
*DIODES_INC_SPICE_MODEL
*ORIGIN=DZSL_DPG
*SIMULATOR=PSPICE
*DATE=08/01/2009
*VERSION=1
*
.MODEL 2DD2661  NPN IS=5.92E-13 BF=500 IKF=5 VAF=34.6
+ ISE=1.27E-13 NE=1.425 NR=1 BR=280 IKR=2 VAR=12.25 
+ ISC=6.138E-13 NC=1.46 RB=0.1 RE=0.025 RC=0.017 
+ CJC=76E-12 MJC=0.2981 VJC=0.4414 CJE=230E-12 
+ MJE=0.3569 VJE=0.7042 TF=1.12E-9 TR=2.15E-9
*
*$

2DD2678*
*DIODES_INC_SPICE_MODEL
*ORIGIN=DZSL_DPG
*SIMULATOR=PSPICE
*DATE=08/01/2009
*VERSION=1
*
.MODEL 2DD2678  NPN IS=5.92E-13 BF=500 IKF=5 VAF=34.6
+ ISE=1.27E-13 NE=1.425 NR=1 BR=280 IKR=2 VAR=12.25 
+ ISC=6.138E-13 NC=1.46 RB=0.1 RE=0.025 RC=0.017 
+ CJC=76E-12 MJC=0.2981 VJC=0.4414 CJE=230E-12 
+ MJE=0.3569 VJE=0.7042 TF=1.12E-9 TR=2.15E-9
*
*$

2DD2679*
*DIODES_INC_SPICE_MODEL
*ORIGIN=DZSL_DPG
*SIMULATOR=PSPICE
*DATE=09/01/2009
*VERSION=1
*
.MODEL 2DD2679 NPN IS=5.1E-13 BF=480 NF=1 VAF=99 IKF=3.3 ISE=1.2E-13
+ NE=1.49 BR=65 NR=1 VAR=24 IKR=1 ISC=1.1E-13 NC=1.31 RE=0.0115 RB=0.15 RC=0.012
+ CJE=192E-12 VJE=0.75 MJE=0.38 CJC=35E-12 VJC=0.47 MJC=0.34 TF=0.62E-9 TR=20E-9
+ RCO=1.9 GAMMA=1E-8 QUASIMOD=1 XTB=1.35 TRE1=0.005 TRB1=0.005 TRC1=0.005
*
*$

2N7002*ZETEX 2N7002 Spice Model v1.0 Last Revised 3/5/00
    *
    .SUBCKT 2N7002 3 4 5
    * Nodes        D G S
    M1 3 2 5 5 MOD1
    RG 4 2 343
    RL 3 5 6E6
    C1 2 5 23.5P
    C2 3 2 4.5P 
    D1 5 3 DIODE1
    *
    .MODEL MOD1 NMOS VTO=2.474 RS=1.68 RD=0.0 IS=1E-15 KP=0.296
    +CBD=53.5P PB=1 LAMBDA=267E-6
    .MODEL DIODE1 D IS=1.254E-13 N=1.0207 RS=0.222
    .ENDS 2N7002
    *
    *$
    *

2N7002(Z)*
*Zetex 2N7002 Spice Model v1.0 Last Revised 3/5/00
*
.SUBCKT 2N7002 3 4 5
* Nodes        D G S
M1 3 2 5 5 MOD1
RG 4 2 343
RL 3 5 6E6
C1 2 5 23.5P
C2 3 2 4.5P 
D1 5 3 DIODE1
*
.MODEL MOD1 NMOS VTO=2.474 RS=1.68 RD=0.0 IS=1E-15 KP=0.296
+CBD=53.5P PB=1 LAMBDA=267E-6
.MODEL DIODE1 D IS=1.254E-13 N=1.0207 RS=0.222
.ENDS 2N7002
*
*$
*
*                (c)  2005 Zetex Semiconductors plc
*
*   The copyright in these models  and  the designs embodied belong
*   to Zetex Semiconductors plc (" Zetex ").  They  are  supplied
*   free of charge by Zetex for the purpose of research and design
*   and may be used or copied intact  (including this notice)  for
*   that purpose only.  All other rights are reserved. The models
*   are believed accurate but  no condition  or warranty  as to their
*   merchantability or fitness for purpose is given and no liability
*   in respect of any use is accepted by Zetex PLC, its distributors
*   or agents.
*
*   Zetex Semiconductors plc, Zetex Technology Park, Chadderton,
*   Oldham, United Kingdom, OL9 9LL

2N7002A*SRC=2N7002A;DI_2N7002A;MOSFETs N;Enh;60.0V 0.115A 5.00ohms  Diodes Inc. MOSFET
.MODEL DI_2N7002A  NMOS( LEVEL=1 VTO=2.00 KP=55.7m  GAMMA=2.48
+ PHI=.75  LAMBDA=69.6u RD=0.700 RS=0.700
+ IS=57.5f  PB=0.800 MJ=0.460 CBD=9.88p 
+ CBS=11.9p  CGSO=16.8n CGDO=14.0n CGBO=199n  )
*   -- Assumes default L=100U W=100U --

2N7002DW*SRC=2N7002DW;DI_2N7002DW;MOSFETs N;Enh;60.0V 0.115A 3.20ohms  Diodes Inc. MOSFET - One element of dual
.MODEL DI_2N7002DW  NMOS( LEVEL=1 VTO=1.50 KP=32.0m  GAMMA=1.86
+ PHI=.75  LAMBDA=34.2u RD=0.448 RS=0.448
+ IS=57.5f  PB=0.800 MJ=0.460 CBD=44.5p 
+ CBS=53.4p  CGSO=24.0n CGDO=20.0n CGBO=176n  )  *   -- Assumes default L=100U W=100U --

2N7002E*SRC=2N7002E;DI_2N7002E;MOSFETs N;Enh;60.0V 0.240A 4.00ohms  Diodes Inc. MOSFET .MODEL DI_2N7002E  NMOS( LEVEL=1 VTO=2.50 KP=781u  GAMMA=3.10
+ PHI=.75  LAMBDA=83.2u RD=0.560 RS=0.560
+ IS=120f  PB=0.800 MJ=0.460 CBD=44.5p
+ CBS=53.4p  CGSO=24.0n CGDO=20.0n CGBO=176n  )
*   -- Assumes default L=100U W=100U --

2N7002K*SRC=2N7002K;DI_2N7002K;MOSFETs N;Enh;60.0V 0.300A 2.00ohms  Diodes Inc. MOSFET
.MODEL DI_2N7002K  NMOS( LEVEL=1 VTO=2.50 KP=32.0m  GAMMA=3.10
+ PHI=.75  LAMBDA=104u RD=0.280 RS=0.280
+ IS=150f  PB=0.800 MJ=0.460 CBD=98.8p 
+ CBS=119p  CGSO=60.0n CGDO=50.0n CGBO=390n  )
*   -- Assumes default L=100U W=100U --

2N7002T*SRC=2N7002T;DI_2N7002T;MOSFETs N;Enh;60.0V 0.115A 2.00ohms  Didoes Inc. MOSFET 
.MODEL DI_2N7002T  NMOS( LEVEL=1 VTO=1.50 KP=32.0m  GAMMA=1.86
+ PHI=.75  LAMBDA=40.0u RD=0.280 RS=0.280
+ IS=57.5f  PB=0.800 MJ=0.460 CBD=44.5p 
+ CBS=53.4p  CGSO=24.0n CGDO=20.0n CGBO=176n  )   *   -- Assumes default L=100U W=100U --

2N7002W*SRC=2N7002W;DI_2N7002W;MOSFETs N;Enh;60.0V 0.115A 3.20ohms  Diodes Inc. MOSFET 
.MODEL DI_2N7002W  NMOS( LEVEL=1 VTO=1.50 KP=32.0m  GAMMA=1.86
+ PHI=.75  LAMBDA=40.0u RD=0.448 RS=0.448
+ IS=57.5f  PB=0.800 MJ=0.460 CBD=44.5p 
+ CBS=53.4p  CGSO=24.0n CGDO=20.0n CGBO=176n  )   *   -- Assumes default L=100U W=100U --

3.0SMCJ22A*
*DIODES_INC_SPICE_MODEL
*ORIGIN=DZSL_DPG
*SIMULATOR=PSPICE
*DATE=09/10/2009
*VERSION=1
*PIN_ORDER         C A
*
.SUBCKT 30SMCJ22A 1 2
D1 2 11  Dmod1
L1 1 11 5E-9
.MODEL Dmod1 D (IS=1E-12 N=1.1 RS=0.01 TRS1=5E-4 CJO=5950E-12 VJ=0.51
+ M=0.34 BV=25.3 IBV=100E-6 TBV1=8E-4)
.ENDS 30SMCJ22A
*
*$

3.0SMCJ28A*
*DIODES_INC_SPICE_MODEL
*ORIGIN=DZSL_DPG_SU
*SIMULATOR=PSPICE
*DATE=1/04/2014
*VERSION=1

.model 30SMCJ28A D(IS=.1u RS=0.1 CJO=1800p M=0.5 VJ=0.4 ISR=.008u N=1.05 IKF=1m BV=30 NBV=20 IBV=10u TT=40n EG=.84 TRS1=.1m) 


*         (c)  2014 Diodes Inc
*   The copyright in these models  and  the designs embodied belong
*   to Diodes Incorporated (" Zetex ").  They  are  supplied
*   free of charge by Zetex for the purpose of research and design
*   and may be used or copied intact  (including this notice)  for
*   that purpose only.  All other rights are reserved.  The models
*   are believed accurate but no condition  or warranty  as to their
*   merchantability or fitness for purpose is given and no liability
*   in respect of any use is accepted by Diodes Incorporated, its distributors
*   or agents.
*
*   Diodes Zetex Semiconductors Ltd, Zetex Technology Park, Chadderton,
*   Oldham, United Kingdom, OL9 9LL
*

.SIMULATOR DEFAULT


3.0SMCJ30A*
*DIODES_INC_SPICE_MODEL
*ORIGIN=DZSL_DPG_SU
*SIMULATOR=PSPICE
*DATE=1/30/2015
*VERSION=1


.model 3_0SMCJ30A D(IS=.1u RS=0.15 CJO=17000p M=1 VJ=0.4 ISR=.008u N=1.05 IKF=1m BV=32 NBV=10 IBV=10u TT=4n EG=.84 TRS1=.1m)


*         (c)  2015 Diodes Inc
*   The copyright in these models  and  the designs embodied belong
*   to Diodes Incorporated (" Zetex ").  They  are  supplied
*   free of charge by Zetex for the purpose of research and design
*   and may be used or copied intact  (including this notice)  for